# WJS006
# Created by GaussView 6.0.16
#

#
#

@<TRIPOS>MOLECULE
Molecule Name
98 111
SMALL
NO_CHARGES


@<TRIPOS>ATOM
1 S1    11.7897     3.6936    17.9195 S
2 S2    13.4507     2.3100    15.6730 S
3 S3    13.9405     3.2688    12.6987 S
4 S4    11.8614     3.9732    10.4796 S
5 S5     9.2669     7.8016    10.5988 S
6 S6     8.8880     9.9537    12.8338 S
7 C7    13.0319     1.2189    18.1815 C
8 C8    11.9429     2.0671    18.4861 C
9 C9    10.8332     1.7174    19.2762 C
10 H10    10.7412     0.8742    19.7046 H
11 C11     9.8879     2.7122    19.3714 C
12 H12     9.0632     2.6159    19.8318 H
13 C13    10.2802     3.8975    18.7050 C
14 C14    13.8862     1.4032    17.0925 C
15 C15    15.1255     0.7749    16.8888 C
16 H16    15.5540     0.2385    17.5452 H
17 C17    15.6653     1.0178    15.6323 C
18 H18    16.5024     0.6687    15.3486 H
19 C19    14.8634     1.8221    14.8289 C
20 C20    15.0785     2.2493    13.4809 C
21 C21    16.1492     1.9687    12.6414 C
22 H22    16.8658     1.3888    12.8776 H
23 C23    16.0636     2.6179    11.4305 C
24 H24    16.7364     2.5515    10.7613 H
25 C25    14.9152     3.3782    11.2668 C
26 C26    14.6027     4.2913    10.2102 C
27 C27    13.3229     4.7499     9.9208 C
28 C28    13.0022     5.9374     9.2164 C
29 H29    13.6585     6.4888     8.8059 H
30 C30    11.6677     6.2139     9.1821 C
31 H31    11.3053     6.9967     8.7859 H
32 C32    10.8724     5.2086     9.8009 C
33 C33     9.4447     5.1625     9.8466 C
34 C34     8.6908     6.3730     9.8332 C
35 C35     7.4334     6.5930     9.2221 C
36 H36     6.9229     5.9107     8.8010 H
37 C37     7.0337     7.9082     9.3059 C
38 H38     6.2399     8.2324     8.8950 H
39 C39     7.8853     8.7208    10.0465 C
40 C40     7.6963    10.0800    10.3473 C
41 C41     8.3273    10.7586    11.3982 C
42 C42     8.4429    12.1387    11.5733 C
43 H43     8.1625    12.7644    10.9156 H
44 C44     8.9934    12.5136    12.7727 C
45 H45     9.1708    13.4185    13.0041 H
46 C46     9.2639    11.4392    13.6180 C
47 S47     7.2501     3.6936    10.6378 S
48 S48     5.5891     2.3100    12.8843 S
49 S49     5.0994     3.2688    15.8586 S
50 S50     7.1784     3.9732    18.0777 S
51 S51     9.7729     7.8016    17.9585 S
52 S52    10.1519     9.9537    15.7235 S
53 C53     6.0080     1.2189    10.3758 C
54 C54     7.0970     2.0671    10.0712 C
55 C55     8.2067     1.7174     9.2811 C
56 H56     8.2987     0.8742     8.8527 H
57 C57     9.1520     2.7122     9.1859 C
58 H58     9.9767     2.6159     8.7255 H
59 C59     8.7597     3.8975     9.8523 C
60 C60     5.1537     1.4032    11.4648 C
61 C61     3.9144     0.7749    11.6685 C
62 H62     3.4859     0.2385    11.0121 H
63 C63     3.3745     1.0178    12.9250 C
64 H64     2.5374     0.6687    13.2087 H
65 C65     4.1764     1.8221    13.7284 C
66 C66     3.9613     2.2493    15.0764 C
67 C67     2.8907     1.9687    15.9159 C
68 H68     2.1741     1.3888    15.6797 H
69 C69     2.9762     2.6179    17.1268 C
70 H70     2.3035     2.5515    17.7960 H
71 C71     4.1247     3.3782    17.2905 C
72 C72     4.4371     4.2913    18.3471 C
73 C73     5.7170     4.7499    18.6365 C
74 C74     6.0377     5.9374    19.3409 C
75 H75     5.3814     6.4888    19.7514 H
76 C76     7.3721     6.2139    19.3752 C
77 H77     7.7346     6.9967    19.7714 H
78 C78     8.1675     5.2086    18.7564 C
79 C79     9.5952     5.1625    18.7107 C
80 C80    10.3490     6.3730    18.7241 C
81 C81    11.6065     6.5930    19.3352 C
82 H82    12.1170     5.9107    19.7563 H
83 C83    12.0062     7.9082    19.2514 C
84 H84    12.8000     8.2324    19.6623 H
85 C85    11.1546     8.7208    18.5108 C
86 C86    11.3436    10.0800    18.2100 C
87 C87    10.7126    10.7586    17.1591 C
88 C88    10.5970    12.1387    16.9840 C
89 H89    10.8774    12.7644    17.6417 H
90 C90    10.0465    12.5136    15.7846 C
91 H91     9.8691    13.4185    15.5532 H
92 C92     9.7760    11.4392    14.9393 C
93 H93    12.0174    10.6366    18.8274 H
94 H94    15.4087     4.6449     9.6018 H
95 H95     7.0225    10.6366     9.7299 H
96 H96     5.8271     0.3837     9.7319 H
97 H97    13.2128     0.3837    18.8254 H
98 H98     3.6310     4.6449    18.9555 H
@<TRIPOS>BOND
1 1 8 1
2 1 13 1
3 2 14 1
4 2 19 1
5 3 20 1
6 3 25 1
7 4 27 1
8 4 32 1
9 5 34 1
10 5 39 1
11 6 41 1
12 6 46 1
13 7 8 1
14 7 14 1
15 7 97 1
16 8 9 1
17 9 10 1
18 9 11 1
19 11 12 1
20 11 13 1
21 13 79 1
22 14 15 1
23 15 16 1
24 15 17 1
25 17 18 1
26 17 19 1
27 19 20 1
28 20 21 1
29 21 22 1
30 21 23 1
31 23 24 1
32 23 25 1
33 25 26 1
34 26 27 1
35 26 94 1
36 27 28 1
37 28 29 1
38 28 30 1
39 30 31 1
40 30 32 1
41 32 33 1
42 33 34 1
43 33 59 1
44 34 35 1
45 35 36 1
46 35 37 1
47 37 38 1
48 37 39 1
49 39 40 1
50 40 41 1
51 40 95 1
52 41 42 1
53 42 43 1
54 42 44 1
55 44 45 1
56 44 46 1
57 46 92 1
58 47 54 1
59 47 59 1
60 48 60 1
61 48 65 1
62 49 66 1
63 49 71 1
64 50 73 1
65 50 78 1
66 51 80 1
67 51 85 1
68 52 87 1
69 52 92 1
70 53 54 1
71 53 60 1
72 53 96 1
73 54 55 1
74 55 56 1
75 55 57 1
76 57 58 1
77 57 59 1
78 60 61 1
79 61 62 1
80 61 63 1
81 63 64 1
82 63 65 1
83 65 66 1
84 66 67 1
85 67 68 1
86 67 69 1
87 69 70 1
88 69 71 1
89 71 72 1
90 72 73 1
91 72 98 1
92 73 74 1
93 74 75 1
94 74 76 1
95 76 77 1
96 76 78 1
97 78 79 1
98 79 80 1
99 80 81 1
100 81 82 1
101 81 83 1
102 83 84 1
103 83 85 1
104 85 86 1
105 86 87 1
106 86 93 1
107 87 88 1
108 88 89 1
109 88 90 1
110 90 91 1
111 90 92 1
